<?xml version="1.0" encoding="UTF-8"?>
<nodes>
    <node id="center" x="0.00"    y="0.00"    type="traffic_light"/>
    <node id="N"      x="0.00"    y="300.00"  type="dead_end"/>
    <node id="S"      x="0.00"    y="-300.00" type="dead_end"/>
    <node id="E"      x="300.00"  y="0.00"    type="dead_end"/>
    <node id="W"      x="-300.00" y="0.00"    type="dead_end"/>
</nodes>