<?xml version="1.0" encoding="UTF-8"?>

<!-- generated on 2026-04-08T23:59:26.426100+09:00 by Eclipse SUMO netconvert 1.26.0
<netconvertConfiguration xmlns:xsi="http://www.w3.org/2001/XMLSchema-instance" xsi:noNamespaceSchemaLocation="http://sumo.dlr.de/xsd/netconvertConfiguration.xsd">

    <input>
        <node-files value="intersection.nod.xml"/>
        <edge-files value="intersection.edg.xml"/>
    </input>

    <output>
        <output-file value="intersection.net.xml"/>
    </output>

    <tls_building>
        <tls.guess value="true"/>
    </tls_building>

</netconvertConfiguration>
-->

<net version="1.20" junctionCornerDetail="5" limitTurnSpeed="5.50" xmlns:xsi="http://www.w3.org/2001/XMLSchema-instance" xsi:noNamespaceSchemaLocation="http://sumo.dlr.de/xsd/net_file.xsd">

    <location netOffset="300.00,300.00" convBoundary="0.00,0.00,600.00,600.00" origBoundary="-300.00,-300.00,300.00,300.00" projParameter="!"/>

    <edge id=":E_0" function="internal">
        <lane id=":E_0_0" index="0" speed="3.65" length="4.67" shape="600.00,298.40 601.20,299.20 601.60,300.00 601.20,300.80 600.00,301.60"/>
    </edge>
    <edge id=":N_0" function="internal">
        <lane id=":N_0_0" index="0" speed="3.65" length="4.67" shape="301.60,600.00 300.80,601.20 300.00,601.60 299.20,601.20 298.40,600.00"/>
    </edge>
    <edge id=":S_0" function="internal">
        <lane id=":S_0_0" index="0" speed="3.65" length="4.67" shape="298.40,0.00 299.20,-1.20 300.00,-1.60 300.80,-1.20 301.60,0.00"/>
    </edge>
    <edge id=":W_0" function="internal">
        <lane id=":W_0_0" index="0" speed="3.65" length="4.67" shape="0.00,301.60 -1.20,300.80 -1.60,300.00 -1.20,299.20 0.00,298.40"/>
    </edge>
    <edge id=":center_0" function="internal">
        <lane id=":center_0_0" index="0" speed="6.51" length="9.03" shape="298.40,307.20 298.05,304.75 297.00,303.00 295.25,301.95 292.80,301.60"/>
    </edge>
    <edge id=":center_1" function="internal">
        <lane id=":center_1_0" index="0" speed="13.89" length="14.40" shape="298.40,307.20 298.40,292.80"/>
    </edge>
    <edge id=":center_2" function="internal">
        <lane id=":center_2_0" index="0" speed="8.00" length="4.07" shape="298.40,307.20 298.95,303.35 299.04,303.20"/>
    </edge>
    <edge id=":center_3" function="internal">
        <lane id=":center_3_0" index="0" speed="3.65" length="1.44" shape="298.40,307.20 299.20,306.00"/>
    </edge>
    <edge id=":center_16" function="internal">
        <lane id=":center_16_0" index="0" speed="8.00" length="10.13" shape="299.04,303.20 300.60,300.60 303.35,298.95 307.20,298.40"/>
    </edge>
    <edge id=":center_17" function="internal">
        <lane id=":center_17_0" index="0" speed="3.65" length="3.23" shape="299.20,306.00 300.00,305.60 300.80,306.00 301.60,307.20"/>
    </edge>
    <edge id=":center_4" function="internal">
        <lane id=":center_4_0" index="0" speed="6.51" length="9.03" shape="307.20,301.60 304.75,301.95 303.00,303.00 301.95,304.75 301.60,307.20"/>
    </edge>
    <edge id=":center_5" function="internal">
        <lane id=":center_5_0" index="0" speed="13.89" length="14.40" shape="307.20,301.60 292.80,301.60"/>
    </edge>
    <edge id=":center_6" function="internal">
        <lane id=":center_6_0" index="0" speed="8.00" length="4.07" shape="307.20,301.60 303.35,301.05 303.20,300.96"/>
    </edge>
    <edge id=":center_7" function="internal">
        <lane id=":center_7_0" index="0" speed="3.65" length="1.44" shape="307.20,301.60 306.00,300.80"/>
    </edge>
    <edge id=":center_18" function="internal">
        <lane id=":center_18_0" index="0" speed="8.00" length="10.13" shape="303.20,300.96 300.60,299.40 298.95,296.65 298.40,292.80"/>
    </edge>
    <edge id=":center_19" function="internal">
        <lane id=":center_19_0" index="0" speed="3.65" length="3.23" shape="306.00,300.80 305.60,300.00 306.00,299.20 307.20,298.40"/>
    </edge>
    <edge id=":center_8" function="internal">
        <lane id=":center_8_0" index="0" speed="6.51" length="9.03" shape="301.60,292.80 301.95,295.25 303.00,297.00 304.75,298.05 307.20,298.40"/>
    </edge>
    <edge id=":center_9" function="internal">
        <lane id=":center_9_0" index="0" speed="13.89" length="14.40" shape="301.60,292.80 301.60,307.20"/>
    </edge>
    <edge id=":center_10" function="internal">
        <lane id=":center_10_0" index="0" speed="8.00" length="4.07" shape="301.60,292.80 301.05,296.65 300.96,296.80"/>
    </edge>
    <edge id=":center_11" function="internal">
        <lane id=":center_11_0" index="0" speed="3.65" length="1.44" shape="301.60,292.80 300.80,294.00"/>
    </edge>
    <edge id=":center_20" function="internal">
        <lane id=":center_20_0" index="0" speed="8.00" length="10.13" shape="300.96,296.80 299.40,299.40 296.65,301.05 292.80,301.60"/>
    </edge>
    <edge id=":center_21" function="internal">
        <lane id=":center_21_0" index="0" speed="3.65" length="3.23" shape="300.80,294.00 300.00,294.40 299.20,294.00 298.40,292.80"/>
    </edge>
    <edge id=":center_12" function="internal">
        <lane id=":center_12_0" index="0" speed="6.51" length="9.03" shape="292.80,298.40 295.25,298.05 297.00,297.00 298.05,295.25 298.40,292.80"/>
    </edge>
    <edge id=":center_13" function="internal">
        <lane id=":center_13_0" index="0" speed="13.89" length="14.40" shape="292.80,298.40 307.20,298.40"/>
    </edge>
    <edge id=":center_14" function="internal">
        <lane id=":center_14_0" index="0" speed="8.00" length="4.07" shape="292.80,298.40 296.65,298.95 296.80,299.04"/>
    </edge>
    <edge id=":center_15" function="internal">
        <lane id=":center_15_0" index="0" speed="3.65" length="1.44" shape="292.80,298.40 294.00,299.20"/>
    </edge>
    <edge id=":center_22" function="internal">
        <lane id=":center_22_0" index="0" speed="8.00" length="10.13" shape="296.80,299.04 299.40,300.60 301.05,303.35 301.60,307.20"/>
    </edge>
    <edge id=":center_23" function="internal">
        <lane id=":center_23_0" index="0" speed="3.65" length="3.23" shape="294.00,299.20 294.40,300.00 294.00,300.80 292.80,301.60"/>
    </edge>

    <edge id="C2E" from="center" to="E" priority="-1">
        <lane id="C2E_0" index="0" speed="13.89" length="292.80" shape="307.20,298.40 600.00,298.40"/>
    </edge>
    <edge id="C2N" from="center" to="N" priority="-1">
        <lane id="C2N_0" index="0" speed="13.89" length="292.80" shape="301.60,307.20 301.60,600.00"/>
    </edge>
    <edge id="C2S" from="center" to="S" priority="-1">
        <lane id="C2S_0" index="0" speed="13.89" length="292.80" shape="298.40,292.80 298.40,0.00"/>
    </edge>
    <edge id="C2W" from="center" to="W" priority="-1">
        <lane id="C2W_0" index="0" speed="13.89" length="292.80" shape="292.80,301.60 0.00,301.60"/>
    </edge>
    <edge id="E2C" from="E" to="center" priority="-1">
        <lane id="E2C_0" index="0" speed="13.89" length="292.80" shape="600.00,301.60 307.20,301.60"/>
    </edge>
    <edge id="N2C" from="N" to="center" priority="-1">
        <lane id="N2C_0" index="0" speed="13.89" length="292.80" shape="298.40,600.00 298.40,307.20"/>
    </edge>
    <edge id="S2C" from="S" to="center" priority="-1">
        <lane id="S2C_0" index="0" speed="13.89" length="292.80" shape="301.60,0.00 301.60,292.80"/>
    </edge>
    <edge id="W2C" from="W" to="center" priority="-1">
        <lane id="W2C_0" index="0" speed="13.89" length="292.80" shape="0.00,298.40 292.80,298.40"/>
    </edge>

    <tlLogic id="center" type="static" programID="0" offset="0">
        <phase duration="42" state="GGggrrrrGGggrrrr"/>
        <phase duration="3"  state="yyyyrrrryyyyrrrr"/>
        <phase duration="42" state="rrrrGGggrrrrGGgg"/>
        <phase duration="3"  state="rrrryyyyrrrryyyy"/>
    </tlLogic>

    <junction id="E" type="priority" x="600.00" y="300.00" incLanes="C2E_0" intLanes=":E_0_0" shape="600.00,300.00 600.00,296.80 600.00,300.00">
        <request index="0" response="0" foes="0" cont="0"/>
    </junction>
    <junction id="N" type="priority" x="300.00" y="600.00" incLanes="C2N_0" intLanes=":N_0_0" shape="300.00,600.00 303.20,600.00 300.00,600.00">
        <request index="0" response="0" foes="0" cont="0"/>
    </junction>
    <junction id="S" type="priority" x="300.00" y="0.00" incLanes="C2S_0" intLanes=":S_0_0" shape="300.00,0.00 296.80,0.00 300.00,0.00">
        <request index="0" response="0" foes="0" cont="0"/>
    </junction>
    <junction id="W" type="priority" x="0.00" y="300.00" incLanes="C2W_0" intLanes=":W_0_0" shape="0.00,300.00 0.00,303.20 0.00,300.00">
        <request index="0" response="0" foes="0" cont="0"/>
    </junction>
    <junction id="center" type="traffic_light" x="300.00" y="300.00" incLanes="N2C_0 E2C_0 S2C_0 W2C_0" intLanes=":center_0_0 :center_1_0 :center_16_0 :center_17_0 :center_4_0 :center_5_0 :center_18_0 :center_19_0 :center_8_0 :center_9_0 :center_20_0 :center_21_0 :center_12_0 :center_13_0 :center_22_0 :center_23_0" shape="296.80,307.20 303.20,307.20 303.64,304.98 304.20,304.20 304.98,303.64 305.98,303.31 307.20,303.20 307.20,296.80 304.98,296.36 304.20,295.80 303.64,295.02 303.31,294.02 303.20,292.80 296.80,292.80 296.36,295.02 295.80,295.80 295.02,296.36 294.02,296.69 292.80,296.80 292.80,303.20 295.02,303.64 295.80,304.20 296.36,304.98 296.69,305.98">
        <request index="0"  response="0000000000000000" foes="1000010000100000" cont="0"/>
        <request index="1"  response="0100000001000000" foes="0111110001100000" cont="0"/>
        <request index="2"  response="0100011101000000" foes="0110011111100000" cont="1"/>
        <request index="3"  response="0100001000010000" foes="0100001000010000" cont="1"/>
        <request index="4"  response="0000001000000000" foes="0100001000001000" cont="0"/>
        <request index="5"  response="0000011000000111" foes="1100011000000111" cont="0"/>
        <request index="6"  response="0111011000000110" foes="0111111000000110" cont="1"/>
        <request index="7"  response="0010000100000100" foes="0010000100000100" cont="1"/>
        <request index="8"  response="0000000000000000" foes="0010000010000100" cont="0"/>
        <request index="9"  response="0100000001000000" foes="0110000001111100" cont="0"/>
        <request index="10" response="0100000001000011" foes="1110000001100111" cont="1"/>
        <request index="11" response="0001000001000010" foes="0001000001000010" cont="1"/>
        <request index="12" response="0000000000000010" foes="0000100001000010" cont="0"/>
        <request index="13" response="0000011100000110" foes="0000011111000110" cont="0"/>
        <request index="14" response="0000011000110110" foes="0000011001111110" cont="1"/>
        <request index="15" response="0000010000100001" foes="0000010000100001" cont="1"/>
    </junction>

    <junction id=":center_16_0" type="internal" x="299.04" y="303.20" incLanes=":center_2_0 S2C_0" intLanes=":center_5_0 :center_6_0 :center_7_0 :center_8_0 :center_9_0 :center_13_0 :center_14_0"/>
    <junction id=":center_17_0" type="internal" x="299.20" y="306.00" incLanes=":center_3_0 E2C_0 S2C_0 W2C_0" intLanes=":center_4_0 :center_9_0 :center_14_0"/>
    <junction id=":center_18_0" type="internal" x="303.20" y="300.96" incLanes=":center_6_0 W2C_0" intLanes=":center_1_0 :center_2_0 :center_9_0 :center_10_0 :center_11_0 :center_12_0 :center_13_0"/>
    <junction id=":center_19_0" type="internal" x="306.00" y="300.80" incLanes=":center_7_0 N2C_0 S2C_0 W2C_0" intLanes=":center_2_0 :center_8_0 :center_13_0"/>
    <junction id=":center_20_0" type="internal" x="300.96" y="296.80" incLanes=":center_10_0 N2C_0" intLanes=":center_0_0 :center_1_0 :center_5_0 :center_6_0 :center_13_0 :center_14_0 :center_15_0"/>
    <junction id=":center_21_0" type="internal" x="300.80" y="294.00" incLanes=":center_11_0 E2C_0 N2C_0 W2C_0" intLanes=":center_1_0 :center_6_0 :center_12_0"/>
    <junction id=":center_22_0" type="internal" x="296.80" y="299.04" incLanes=":center_14_0 E2C_0" intLanes=":center_1_0 :center_2_0 :center_3_0 :center_4_0 :center_5_0 :center_9_0 :center_10_0"/>
    <junction id=":center_23_0" type="internal" x="294.00" y="299.20" incLanes=":center_15_0 E2C_0 N2C_0 S2C_0" intLanes=":center_0_0 :center_5_0 :center_10_0"/>

    <connection from="C2E" to="E2C" fromLane="0" toLane="0" via=":E_0_0" dir="t" state="M"/>
    <connection from="C2N" to="N2C" fromLane="0" toLane="0" via=":N_0_0" dir="t" state="M"/>
    <connection from="C2S" to="S2C" fromLane="0" toLane="0" via=":S_0_0" dir="t" state="M"/>
    <connection from="C2W" to="W2C" fromLane="0" toLane="0" via=":W_0_0" dir="t" state="M"/>
    <connection from="E2C" to="C2N" fromLane="0" toLane="0" via=":center_4_0" tl="center" linkIndex="4" dir="r" state="o"/>
    <connection from="E2C" to="C2W" fromLane="0" toLane="0" via=":center_5_0" tl="center" linkIndex="5" dir="s" state="o"/>
    <connection from="E2C" to="C2S" fromLane="0" toLane="0" via=":center_6_0" tl="center" linkIndex="6" dir="l" state="o"/>
    <connection from="E2C" to="C2E" fromLane="0" toLane="0" via=":center_7_0" tl="center" linkIndex="7" dir="t" state="o"/>
    <connection from="N2C" to="C2W" fromLane="0" toLane="0" via=":center_0_0" tl="center" linkIndex="0" dir="r" state="O"/>
    <connection from="N2C" to="C2S" fromLane="0" toLane="0" via=":center_1_0" tl="center" linkIndex="1" dir="s" state="O"/>
    <connection from="N2C" to="C2E" fromLane="0" toLane="0" via=":center_2_0" tl="center" linkIndex="2" dir="l" state="o"/>
    <connection from="N2C" to="C2N" fromLane="0" toLane="0" via=":center_3_0" tl="center" linkIndex="3" dir="t" state="o"/>
    <connection from="S2C" to="C2E" fromLane="0" toLane="0" via=":center_8_0" tl="center" linkIndex="8" dir="r" state="O"/>
    <connection from="S2C" to="C2N" fromLane="0" toLane="0" via=":center_9_0" tl="center" linkIndex="9" dir="s" state="O"/>
    <connection from="S2C" to="C2W" fromLane="0" toLane="0" via=":center_10_0" tl="center" linkIndex="10" dir="l" state="o"/>
    <connection from="S2C" to="C2S" fromLane="0" toLane="0" via=":center_11_0" tl="center" linkIndex="11" dir="t" state="o"/>
    <connection from="W2C" to="C2S" fromLane="0" toLane="0" via=":center_12_0" tl="center" linkIndex="12" dir="r" state="o"/>
    <connection from="W2C" to="C2E" fromLane="0" toLane="0" via=":center_13_0" tl="center" linkIndex="13" dir="s" state="o"/>
    <connection from="W2C" to="C2N" fromLane="0" toLane="0" via=":center_14_0" tl="center" linkIndex="14" dir="l" state="o"/>
    <connection from="W2C" to="C2W" fromLane="0" toLane="0" via=":center_15_0" tl="center" linkIndex="15" dir="t" state="o"/>

    <connection from=":E_0" to="E2C" fromLane="0" toLane="0" dir="t" state="M"/>
    <connection from=":N_0" to="N2C" fromLane="0" toLane="0" dir="t" state="M"/>
    <connection from=":S_0" to="S2C" fromLane="0" toLane="0" dir="t" state="M"/>
    <connection from=":W_0" to="W2C" fromLane="0" toLane="0" dir="t" state="M"/>
    <connection from=":center_0" to="C2W" fromLane="0" toLane="0" dir="r" state="M"/>
    <connection from=":center_1" to="C2S" fromLane="0" toLane="0" dir="s" state="M"/>
    <connection from=":center_2" to="C2E" fromLane="0" toLane="0" via=":center_16_0" dir="l" state="m"/>
    <connection from=":center_16" to="C2E" fromLane="0" toLane="0" dir="l" state="M"/>
    <connection from=":center_3" to="C2N" fromLane="0" toLane="0" via=":center_17_0" dir="t" state="m"/>
    <connection from=":center_17" to="C2N" fromLane="0" toLane="0" dir="t" state="M"/>
    <connection from=":center_4" to="C2N" fromLane="0" toLane="0" dir="r" state="M"/>
    <connection from=":center_5" to="C2W" fromLane="0" toLane="0" dir="s" state="M"/>
    <connection from=":center_6" to="C2S" fromLane="0" toLane="0" via=":center_18_0" dir="l" state="m"/>
    <connection from=":center_18" to="C2S" fromLane="0" toLane="0" dir="l" state="M"/>
    <connection from=":center_7" to="C2E" fromLane="0" toLane="0" via=":center_19_0" dir="t" state="m"/>
    <connection from=":center_19" to="C2E" fromLane="0" toLane="0" dir="t" state="M"/>
    <connection from=":center_8" to="C2E" fromLane="0" toLane="0" dir="r" state="M"/>
    <connection from=":center_9" to="C2N" fromLane="0" toLane="0" dir="s" state="M"/>
    <connection from=":center_10" to="C2W" fromLane="0" toLane="0" via=":center_20_0" dir="l" state="m"/>
    <connection from=":center_20" to="C2W" fromLane="0" toLane="0" dir="l" state="M"/>
    <connection from=":center_11" to="C2S" fromLane="0" toLane="0" via=":center_21_0" dir="t" state="m"/>
    <connection from=":center_21" to="C2S" fromLane="0" toLane="0" dir="t" state="M"/>
    <connection from=":center_12" to="C2S" fromLane="0" toLane="0" dir="r" state="M"/>
    <connection from=":center_13" to="C2E" fromLane="0" toLane="0" dir="s" state="M"/>
    <connection from=":center_14" to="C2N" fromLane="0" toLane="0" via=":center_22_0" dir="l" state="m"/>
    <connection from=":center_22" to="C2N" fromLane="0" toLane="0" dir="l" state="M"/>
    <connection from=":center_15" to="C2W" fromLane="0" toLane="0" via=":center_23_0" dir="t" state="m"/>
    <connection from=":center_23" to="C2W" fromLane="0" toLane="0" dir="t" state="M"/>

</net>
